Measurement: Powder, Xray Data XY Processed
Mineral: Forsterite
Rruff sample: R040018
Ideal chemistry: Mg_2_SiO_4_
Locality: Trudy's mine, San Carlos, Gila County, Arizona, USA
Source: Bob Downs
Description: Green fragments from xenoliths in a basalt flow
x	intensity
5	0
5.22	6.693
5.44	18.062
5.66	6.831
5.88	5.655
6.1	3.598
6.32	6.21
6.54	2.626
6.76	7.717
6.98	5.37
7.2	31.172
7.42	12.969
7.64	27.928
7.86	18.489
8.08	20.118
8.3	21.272
8.52	12.876
8.74	22.381
8.96	30.05
9.18	20.724
9.4	3.929
9.62	25.369
9.84	5.528
10.06	29.921
10.28	19.532
10.5	17.962
10.72	23.553
10.94	0.384
11.16	6.462
11.38	23.604
11.6	15.571
11.82	16.109
12.04	10.175
12.26	12.345
12.48	13.391
12.7	3.271
12.92	14.248
13.14	25.836
13.36	14.998
13.58	6.144
13.8	24.338
14.02	23.401
14.24	18.549
14.46	0.051
14.68	14.149
14.9	20.384
15.12	15.376
15.34	25.51
15.56	5.26
15.78	15.413
16	16.012
16.22	5.736
16.44	13.488
16.66	15.105
16.88	16.326
17.1	5.346
17.32	41.383
17.54	27.451
17.76	1.637
17.98	9.138
18.2	11.789
18.42	10.179
18.64	0.833
18.86	20.432
19.08	21.643
19.3	11.617
19.52	15.914
19.74	29.88
19.96	20.635
20.18	16.802
20.4	11.559
20.62	10.021
20.84	14.759
21.06	10.254
21.28	13.08
21.5	10.546
21.72	3.509
21.94	0.42
22.16	17.875
22.38	3.548
22.6	13.301
22.82	42.07
23.04	45.742
23.26	8.093
23.48	10.793
23.7	19.669
23.92	143.187
24.14	12.477
24.36	18.972
24.58	16.422
24.8	12.499
25.02	9.507
25.24	11.828
25.46	81.082
25.68	103.237
25.9	17.589
26.12	9.051
26.34	7.774
26.56	29.206
26.78	23.582
27	9.019
27.22	19.656
27.44	17.869
27.66	18.716
27.88	19.217
28.1	8.975
28.32	21.53
28.54	22.586
28.76	0.991
28.98	9.858
29.2	16.615
29.42	21.512
29.64	20.376
29.86	82.669
30.08	27.963
30.3	11.077
30.52	24.259
30.74	13.218
30.96	13.877
31.18	17.791
31.4	14.74
31.62	18.759
31.84	29.343
32.06	9.871
32.28	60.527
32.5	36.435
32.72	9.028
32.94	33.847
33.16	1.13
33.38	1.379
33.6	5.718
33.82	14.44
34.04	20.017
34.26	8.865
34.48	5.738
34.7	19.955
34.92	13.343
35.14	13.898
35.36	0.214
35.58	17.616
35.8	190.639
36.02	3.448
36.24	14.504
36.46	61.072
36.68	162.546
36.9	23.807
37.12	6.026
37.34	17.117
37.56	17.138
37.78	4.158
38	4.144
38.22	14.449
38.44	100.018
38.66	5.569
38.88	94.711
39.1	15.954
39.32	11.983
39.54	19.668
39.76	147.429
39.98	20.98
40.2	113.541
40.42	9.722
40.64	3.188
40.86	14.493
41.08	3.19
41.3	26.353
41.52	13.011
41.74	37.05
41.96	43.429
42.18	5.752
42.4	2.581
42.62	11.678
42.84	19.168
43.06	18.958
43.28	6.07
43.5	19.874
43.72	0.224
43.94	5.334
44.16	7.038
44.38	18.047
44.6	33.482
44.82	11.707
45.04	12.512
45.26	19.464
45.48	16.389
45.7	24.441
45.92	25.53
46.14	1.249
46.36	4.009
46.58	19.804
46.8	37.059
47.02	10.79
47.24	14.845
47.46	17.901
47.68	32.267
47.9	18.64
48.12	11.771
48.34	13.94
48.56	25.013
48.78	6.911
49	13.836
49.22	14.03
49.44	11.092
49.66	1.892
49.88	6.665
50.1	1.843
50.32	20.201
50.54	14.07
50.76	8.725
50.98	6.446
51.2	16.403
51.42	10.06
51.64	15.295
51.86	32.875
52.08	3.838
52.3	107.39
52.52	67.225
52.74	26.037
52.96	28.069
53.18	3.718
53.4	16.928
53.62	2.137
53.84	14.352
54.06	1.438
54.28	9.849
54.5	21.441
54.72	20.279
54.94	37.182
55.16	2.048
55.38	4.584
55.6	18.849
55.82	2.861
56.04	6.696
56.26	69.97
56.48	16.423
56.7	14.28
56.92	19.043
57.14	2.543
57.36	23.53
57.58	15.65
57.8	18.757
58.02	18.709
58.24	13.001
58.46	1.279
58.68	173.542
58.9	43.043
59.12	6.164
59.34	14.329
59.56	11.475
59.78	18.745
60	2.603
60.22	18.718
60.44	21.153
60.66	19.682
60.88	26.547
61.1	28.763
61.32	17.452
61.54	27.893
61.76	46.708
61.98	72.999
62.2	17.84
62.42	14.902
62.64	29.952
62.86	32.205
63.08	14.7
63.3	12.454
63.52	11.653
63.74	0.257
63.96	17.241
64.18	34.919
64.4	15.2
64.62	2.644
64.84	8.294
65.06	11.748
65.28	17.356
65.5	18.664
65.72	13.406
65.94	9.733
66.16	9.499
66.38	23.998
66.6	6.769
66.82	13.732
67.04	302.144
67.26	74.964
67.48	20.262
67.7	8.476
67.92	16.313
68.14	23.512
68.36	8.731
68.58	22.163
68.8	8.529
69.02	15.026
69.24	10.552
69.46	37.527
69.68	45.099
69.9	15.355
70.12	5.62
70.34	12.417
70.56	23.316
70.78	11.074
71	9.613
71.22	12.806
71.44	7.665
71.66	16.293
71.88	19.288
72.1	5.241
72.32	12.635
72.54	5.514
72.76	8.564
72.98	24.517
73.2	11.198
73.42	20.872
73.64	9.986
73.86	11.109
74.08	4.149
74.3	0.684
74.52	16.431
74.74	12.819
74.96	25.268
75.18	20.315
75.4	0.822
75.62	12.156
75.84	4.957
76.06	23.329
76.28	3.126
76.5	10.647
76.72	11.266
76.94	17.829
77.16	20.09
77.38	5.82
77.6	8.941
77.82	17.271
78.04	4.905
78.26	4.613
78.48	2.419
78.7	12.2
78.92	7.658
79.14	17.295
79.36	8.012
79.58	13.002
79.8	1.001
80.02	13.002
80.24	17.09
80.46	9.068
80.68	42.55
80.9	10.325
81.12	8.247
81.34	3.008
81.56	6.375
81.78	4.523
82	16.524
82.22	5.596
82.44	16.029
82.66	5.937
82.88	21.581
83.1	40.875
83.32	6.695
83.54	7.936
83.76	18.726
83.98	5.586
84.2	39.252
84.42	10.972
84.64	7.665
84.86	13.711
85.08	19.087
85.3	47.017
85.52	30.439
85.74	28.322
85.96	19.004
86.18	8.162
86.4	18.351
86.62	18.034
86.84	13.267
87.06	10.021
87.28	7.136
87.5	10.612
87.72	1.34
87.94	13.737
88.16	5.983
88.38	6.405
88.6	14.348
88.82	17.006
89.04	13.454
89.26	34.502
89.48	33.339
89.7	27.831
89.92	1.205
