Measurement: Powder, Xray Data XY Processed
Mineral: Quartz
Rruff sample: R040031
Ideal chemistry: SiO_2_
Locality: Spruce Claim, King County, Washington, USA
Source: Bob Downs
Description: Colorless hexagonal prism
Measured chemistry: Si_1.00_O_2_
Cell parameters: a: 4.9134(2) b: 4.9134(2) c: 5.4042(4) alpha: 90. beta: 90. gamma: 120. volume: 112.991(5) crystal system: hexagonal
x	intensity
5	0
5.22	11.479
5.44	17.694
5.66	9.789
5.88	18.105
6.1	21.277
6.32	21.519
6.54	4.416
6.76	9.646
6.98	15.837
7.2	13.838
7.42	12.131
7.64	7.892
7.86	11.784
8.08	4.012
8.3	6.477
8.52	8.773
8.74	4.047
8.96	8.572
9.18	13.778
9.4	4.127
9.62	3.494
9.84	7.577
10.06	0.98
10.28	12.215
10.5	3.507
10.72	0.14
10.94	6.019
11.16	7.1
11.38	5.05
11.6	7.094
11.82	10.061
12.04	1.937
12.26	8.633
12.48	3.507
12.7	6.265
12.92	6.246
13.14	10.059
13.36	5.086
13.58	8.102
13.8	8.045
14.02	8.014
14.24	5.051
14.46	4.089
14.68	2.267
14.9	6.392
15.12	7.478
15.34	6.535
15.56	2.471
15.78	1.538
16	5.564
16.22	0.952
16.44	7.045
16.66	5.077
16.88	4.118
17.1	7.052
17.32	4.92
17.54	6.947
17.76	8.538
17.98	5.494
18.2	6.402
18.42	6.329
18.64	4.994
18.86	26.244
19.08	3.629
19.3	1.507
19.52	3.273
19.74	0.251
19.96	5.121
20.18	5.081
20.4	11.936
20.62	10.26
20.84	210.336
21.06	33.214
21.28	2.207
21.5	7.515
21.72	8.068
21.94	12.524
22.16	5.649
22.38	5.772
22.6	1.126
22.82	8.254
23.04	2.959
23.26	4.775
23.48	6.597
23.7	15.66
23.92	14.782
24.14	15.144
24.36	6.699
24.58	9.583
24.8	1.096
25.02	4.857
25.24	0.106
25.46	4.826
25.68	0.834
25.9	16.823
26.12	19.481
26.34	30.113
26.56	203.613
26.78	922.057
27	37.474
27.22	7.931
27.44	10.859
27.66	1.449
27.88	8.691
28.1	9.533
28.32	5.334
28.54	5.173
28.76	8.181
28.98	9.696
29.2	4.211
29.42	4.83
29.64	8.993
29.86	6.901
30.08	7.207
30.3	14.003
30.52	0.136
30.74	3.469
30.96	10.705
31.18	1.982
31.4	3.294
31.62	3.558
31.84	7.039
32.06	5.06
32.28	8.304
32.5	4.3
32.72	2.553
32.94	12.688
33.16	4.808
33.38	6.852
33.6	6.881
33.82	7.844
34.04	9.867
34.26	5.749
34.48	1.759
34.7	5.594
34.92	5.874
35.14	3.842
35.36	1.798
35.58	8.647
35.8	2.319
36.02	5.236
36.24	6.581
36.46	26.744
36.68	481.682
36.9	8.795
37.12	4.521
37.34	0.63
37.56	1.936
37.78	7.188
38	2.148
38.22	5.93
38.44	4.687
38.66	1.154
38.88	6.881
39.1	7.66
39.32	15.389
39.54	110.261
39.76	16.416
39.98	8.188
40.2	10.061
40.42	199.436
40.64	13.592
40.86	9.773
41.08	6.129
41.3	4.176
41.52	8.283
41.74	1.399
41.96	5.501
42.18	6.981
42.4	19.189
42.62	78.02
42.84	6.918
43.06	0.106
43.28	3.236
43.5	6.558
43.72	0.363
43.94	8.786
44.16	3.012
44.38	6.166
44.6	1.176
44.82	1.899
45.04	11.801
45.26	4.862
45.48	7.866
45.7	12.527
45.92	117.058
46.14	13.052
46.36	3.998
46.58	5.841
46.8	4.172
47.02	1.429
47.24	0.409
47.46	7.598
47.68	12.357
47.9	4.191
48.12	2.907
48.34	0.08
48.56	3.02
48.78	5.625
49	3.334
49.22	7.872
49.44	0.719
49.66	7.47
49.88	4.589
50.1	32.559
50.32	188.682
50.54	6.017
50.76	6.008
50.98	1.08
51.2	2.611
51.42	6.077
51.64	9.838
51.86	5.99
52.08	0.472
52.3	5.866
52.52	9.273
52.74	4.344
52.96	7.158
53.18	2.095
53.4	1.035
53.62	0.637
53.84	3.314
54.06	10.677
54.28	2.455
54.5	0.997
54.72	1.15
54.94	108.985
55.16	17.903
55.38	130.935
55.6	13.082
55.82	2.262
56.04	3.368
56.26	2.501
56.48	1.941
56.7	5.14
56.92	3.044
57.14	1.253
57.36	9.463
57.58	8.53
57.8	7.708
58.02	1.926
58.24	5.768
58.46	1.696
58.68	6.596
58.9	13.195
59.12	9.025
59.34	2.993
59.56	3.401
59.78	11.463
60	336.42
60.22	26.421
60.44	4.217
60.66	8.385
60.88	6.798
61.1	2.013
61.32	6.233
61.54	5.353
61.76	5.452
61.98	4.278
62.2	3.434
62.42	1.497
62.64	4.255
62.86	4.502
63.08	2.39
63.3	0.855
63.52	0.926
63.74	5.065
63.96	8.399
64.18	13.315
64.4	8.267
64.62	7.333
64.84	4.283
65.06	2.854
65.28	0.996
65.5	11.072
65.72	5.09
65.94	13.439
66.16	4.253
66.38	1.654
66.6	9.258
66.82	1.722
67.04	1.62
67.26	1.976
67.48	0.405
67.7	16.967
67.92	15.737
68.14	68.58
68.36	509.05
68.58	95.249
68.8	12.68
69.02	0.424
69.24	2.932
69.46	3.529
69.68	10.059
69.9	5.86
70.12	4.311
70.34	9.069
70.56	7.388
70.78	9.414
71	14.572
71.22	2.371
71.44	1.162
71.66	6.2
71.88	5.228
72.1	3.96
72.32	10.831
72.54	4.763
72.76	0.657
72.98	1.828
73.2	4.315
73.42	4.342
73.64	14.467
73.86	5.829
74.08	8.711
74.3	10.671
74.52	3.657
74.74	4.745
74.96	7.807
75.18	5.938
75.4	11.144
75.62	14.229
75.84	11.384
76.06	17.408
76.28	0.924
76.5	6.111
76.72	4.986
76.94	0.041
77.16	2.1
77.38	2.393
77.6	9.252
77.82	7.147
78.04	7.911
78.26	0.979
78.48	2.006
78.7	3.778
78.92	11.595
79.14	8.405
79.36	7.141
79.58	2
79.8	4.693
80.02	16.464
80.24	14.257
80.46	6.163
80.68	4.801
80.9	6.685
81.12	11.962
81.34	10.754
81.56	143.956
81.78	153.189
82	6.475
82.22	4.781
82.44	3.078
82.66	10.277
82.88	0.491
83.1	3.694
83.32	9.821
83.54	0.874
83.76	6.651
83.98	2.811
84.2	9.072
84.42	0.085
84.64	1.827
84.86	2.921
85.08	5.995
85.3	3.073
85.52	2.087
85.74	0.536
85.96	10.444
86.18	5.341
86.4	4.342
86.62	9.22
86.84	13.244
87.06	8.298
87.28	10.6
87.5	14.706
87.72	5.806
87.94	2.004
88.16	4.7
88.38	5.062
88.6	1.343
88.82	6.648
89.04	3.944
89.26	6.023
89.48	9.537
89.7	6.781
89.92	4.997
